<routes>
        <vType id="CAV" accel="0.8" decel="4.5" sigma="0.5" length="5" minGap="2.5" maxSpeed="16.67" guiShape="passenger"/>
        <vType id="HV" accel="0.8" decel="4.5" sigma="0.5" length="5" minGap="2.5" maxSpeed="16.67" guiShape="passenger"/>

        <route id="right" edges="51o 1i 2o 52i" />
        <route id="left" edges="52o 2i 1o 51i" />
        <route id="up" edges="53o 3i 4o 54i" />
        <route id="down" edges="54o 4i 3o 53i" />
    <vehicle id="left_0" type="HV"  route="left" depart="0" />
    <vehicle id="left_1" type="HV"  route="left" depart="4" />
    <vehicle id="right_2" type="HV"  route="right" depart="5" />
    <vehicle id="up_3" type="HV"  route="up" depart="9" />
    <vehicle id="left_4" type="HV"  route="left" depart="16" />
    <vehicle id="right_5" type="HV"  route="right" depart="20" />
    <vehicle id="up_6" type="HV"  route="up" depart="35" />
    <vehicle id="left_7" type="HV"  route="left" depart="45" />
    <vehicle id="up_8" type="HV"  route="up" depart="47" />
    <vehicle id="right_9" type="HV"  route="right" depart="48" />
    <vehicle id="right_10" type="HV"  route="right" depart="79" />
    <vehicle id="left_11" type="HV"  route="left" depart="81" />
    <vehicle id="down_12" type="HV"  route="down" depart="86" />
    <vehicle id="up_13" type="HV"  route="up" depart="92" />
</routes>
