<routes>
        <vType id="CAV" accel="0.8" decel="4.5" sigma="0.5" length="5" minGap="2.5" maxSpeed="16.67" guiShape="passenger"/>
        <vType id="HV" accel="0.8" decel="4.5" sigma="0.5" length="5" minGap="2.5" maxSpeed="16.67" guiShape="passenger"/>

        <route id="right" edges="51o 1i 2o 52i" />
        <route id="left" edges="52o 2i 1o 51i" />
        <route id="up" edges="53o 3i 4o 54i" />
        <route id="down" edges="54o 4i 3o 53i" />
    <vehicle id="left_0" type="HV"  route="left" depart="3" />
    <vehicle id="up_1" type="HV"  route="up" depart="9" />
    <vehicle id="up_2" type="HV"  route="up" depart="14" />
    <vehicle id="up_3" type="HV"  route="up" depart="15" />
    <vehicle id="right_4" type="HV"  route="right" depart="27" />
    <vehicle id="down_5" type="HV"  route="down" depart="32" />
    <vehicle id="right_6" type="HV"  route="right" depart="37" />
    <vehicle id="down_7" type="HV"  route="down" depart="49" />
    <vehicle id="right_8" type="HV"  route="right" depart="50" />
    <vehicle id="right_9" type="HV"  route="right" depart="51" />
    <vehicle id="left_10" type="HV"  route="left" depart="51" />
    <vehicle id="left_11" type="HV"  route="left" depart="56" />
    <vehicle id="left_12" type="HV"  route="left" depart="58" />
    <vehicle id="up_13" type="HV"  route="up" depart="58" />
    <vehicle id="left_14" type="HV"  route="left" depart="65" />
    <vehicle id="down_15" type="HV"  route="down" depart="73" />
    <vehicle id="right_16" type="HV"  route="right" depart="75" />
    <vehicle id="down_17" type="HV"  route="down" depart="77" />
    <vehicle id="up_18" type="HV"  route="up" depart="77" />
    <vehicle id="right_19" type="HV"  route="right" depart="88" />
    <vehicle id="left_20" type="HV"  route="left" depart="91" />
    <vehicle id="left_21" type="HV"  route="left" depart="92" />
    <vehicle id="up_22" type="HV"  route="up" depart="92" />
    <vehicle id="up_23" type="HV"  route="up" depart="94" />
</routes>
