<routes>
        <vType id="CAV" accel="0.8" decel="4.5" sigma="0.5" length="5" minGap="2.5" maxSpeed="16.67" guiShape="passenger"/>
        <vType id="HV" accel="0.8" decel="4.5" sigma="0.5" length="5" minGap="2.5" maxSpeed="16.67" guiShape="passenger"/>

        <route id="right" edges="51o 1i 2o 52i" />
        <route id="left" edges="52o 2i 1o 51i" />
        <route id="up" edges="53o 3i 4o 54i" />
        <route id="down" edges="54o 4i 3o 53i" />
    <vehicle id="right_0" type="HV"  route="right" depart="3" />
    <vehicle id="up_1" type="HV"  route="up" depart="4" />
    <vehicle id="right_2" type="HV"  route="right" depart="14" />
    <vehicle id="left_3" type="HV"  route="left" depart="14" />
    <vehicle id="left_4" type="HV"  route="left" depart="24" />
    <vehicle id="down_5" type="HV"  route="down" depart="26" />
    <vehicle id="left_6" type="HV"  route="left" depart="27" />
    <vehicle id="left_7" type="HV"  route="left" depart="28" />
    <vehicle id="left_8" type="HV"  route="left" depart="33" />
    <vehicle id="up_9" type="HV"  route="up" depart="33" />
    <vehicle id="right_10" type="HV"  route="right" depart="37" />
    <vehicle id="right_11" type="HV"  route="right" depart="39" />
    <vehicle id="up_12" type="HV"  route="up" depart="39" />
    <vehicle id="down_13" type="HV"  route="down" depart="43" />
    <vehicle id="up_14" type="HV"  route="up" depart="43" />
    <vehicle id="up_15" type="HV"  route="up" depart="44" />
    <vehicle id="up_16" type="HV"  route="up" depart="46" />
    <vehicle id="right_17" type="HV"  route="right" depart="49" />
    <vehicle id="up_18" type="HV"  route="up" depart="55" />
    <vehicle id="left_19" type="HV"  route="left" depart="56" />
    <vehicle id="right_20" type="HV"  route="right" depart="57" />
    <vehicle id="up_21" type="HV"  route="up" depart="57" />
    <vehicle id="down_22" type="HV"  route="down" depart="67" />
    <vehicle id="up_23" type="HV"  route="up" depart="67" />
    <vehicle id="right_24" type="HV"  route="right" depart="68" />
    <vehicle id="left_25" type="HV"  route="left" depart="69" />
    <vehicle id="right_26" type="HV"  route="right" depart="70" />
    <vehicle id="left_27" type="HV"  route="left" depart="71" />
    <vehicle id="up_28" type="HV"  route="up" depart="76" />
    <vehicle id="right_29" type="HV"  route="right" depart="78" />
    <vehicle id="up_30" type="HV"  route="up" depart="79" />
    <vehicle id="right_31" type="HV"  route="right" depart="90" />
    <vehicle id="down_32" type="HV"  route="down" depart="92" />
    <vehicle id="right_33" type="HV"  route="right" depart="95" />
    <vehicle id="up_34" type="HV"  route="up" depart="95" />
    <vehicle id="right_35" type="HV"  route="right" depart="96" />
    <vehicle id="down_36" type="HV"  route="down" depart="96" />
</routes>
